Clear

New Circuit.ucsdMicrogrid_Reduced bus1=SDG&E_69KV basekv=69 pu=1 angle=0 frequency=60 MVAsc3=20000 MVAsc1=20000 x1r1=8.6 x0r0=8.9 BaseFreq=60
New Line.e_1_9_1_11_e_1_9_11 Phases=3 bus1=e_1_9_1_11.1.2.3 bus2=e_1_9_11.1.2.3 Units=km Length=0.012192 Rmatrix=[0.0710846666667    0.0120296666667    0.0120296666667| 0.0120296666667    0.0710846666667    0.0120296666667| 0.0120296666667    0.0120296666667    0.0710846666667|] Xmatrix=[ 0.138888666667    0.0503056666667    0.0503056666667| 0.0503056666667     0.138888666667    0.0503056666667| 0.0503056666667    0.0503056666667     0.138888666667|] Cmatrix=[0                  0                  0| 0                  0                  0| 0                  0                  0|]
New Line.e_1_9_1_11_bus_t_136_pri Phases=3 bus1=e_1_9_1_11.1.2.3 bus2=bus_t_136_pri.1.2.3 Units=km Length=0.03048 Rmatrix=[0.0710846666656    0.0120296666664    0.0120296666664| 0.0120296666664    0.0710846666656    0.0120296666664| 0.0120296666664    0.0120296666664    0.0710846666656|] Xmatrix=[ 0.138888666666    0.0503056666662    0.0503056666662| 0.0503056666662     0.138888666666    0.0503056666662| 0.0503056666662    0.0503056666662     0.138888666666|] Cmatrix=[0                  0                  0| 0                  0                  0| 0                  0                  0|]
New Line.mcss_ma_t_050 Phases=3 bus1=mcss_ma.1.2.3 bus2=t_050.1.2.3 Units=km Length=0.7165848 Rmatrix=[0.0625778080889    0.0106119048049    0.0106119048049| 0.0106119048049    0.0625778080888    0.0106119048049| 0.0106119048049    0.0106119048049    0.0625778080889|] Xmatrix=[ 0.133218195611    0.0474710073064    0.0474710073064| 0.0474710073064     0.133218195611    0.0474710073064| 0.0474710073064    0.0474710073064     0.133218195611|] Cmatrix=[0                  0                  0| 0                  0                  0| 0                  0                  0|]
New Line.mcss_ma_t_305_pri Phases=3 bus1=mcss_ma.1.2.3 bus2=t_305_pri.1.2.3 Units=km Length=0.633984 Rmatrix=[ 0.0554694254147   0.00942721452752   0.00942721452752| 0.00942721452752    0.0554694254147   0.00942721452752| 0.00942721452752   0.00942721452752    0.0554694254147|] Xmatrix=[ 0.128479915845    0.0451023489367    0.0451023489367| 0.0451023489367     0.128479915845    0.0451023489367| 0.0451023489367    0.0451023489367     0.128479915845|] Cmatrix=[0                  0                  0| 0                  0                  0| 0                  0                  0|]
New Line.mcss_mc_e_5_5_436 Phases=3 bus1=mcss_mc.1.2.3 bus2=e_5_5_436.1.2.3 Units=km Length=0.233172 Rmatrix=[0.0710846665307    0.0120296666314    0.0120296666314| 0.0120296666314    0.0710846665307    0.0120296666314| 0.0120296666314    0.0120296666314    0.0710846665307|] Xmatrix=[ 0.138888666566    0.0503056666077    0.0503056666077| 0.0503056666077     0.138888666566    0.0503056666077| 0.0503056666077    0.0503056666077     0.138888666566|] Cmatrix=[0                  0                  0| 0                  0                  0| 0                  0                  0|]
New Line.east_campus_1_revelle_1 Phases=3 bus1=east_campus_1.1.2.3 bus2=revelle_1.1.2.3 Units=km Length=2.479548 Rmatrix=[0.0710846482301    0.0120296618873    0.0120296618873| 0.0120296618873      0.07108464823    0.0120296618873| 0.0120296618873    0.0120296618873    0.0710846482303|] Xmatrix=[ 0.138888652981    0.0503056586719    0.0503056586719| 0.0503056586719     0.138888652981    0.0503056586719| 0.0503056586719    0.0503056586719     0.138888652981|] Cmatrix=[0                  0                  0| 0                  0                  0| 0                  0                  0|]
New Line.east_campus_1_e_7_1_7 Phases=3 bus1=east_campus_1.1.2.3 bus2=e_7_1_7.1.2.3 Units=km Length=0.021336 Rmatrix=[0.0710846666667    0.0120296666667    0.0120296666667| 0.0120296666667    0.0710846666666    0.0120296666667| 0.0120296666667    0.0120296666667    0.0710846666667|] Xmatrix=[ 0.138888666667    0.0503056666667    0.0503056666667| 0.0503056666667     0.138888666667    0.0503056666667| 0.0503056666667    0.0503056666667     0.138888666667|] Cmatrix=[0                  0                  0| 0                  0                  0| 0                  0                  0|]
New Line.east_campus_1_mcss_ma Phases=3 bus1=east_campus_1.1.2.3 bus2=mcss_ma.1.2.3 Units=km Length=0.4227576 Rmatrix=[ 0.0513999996692   0.00874899991875   0.00874899991875| 0.00874899991875    0.0513999996692   0.00874899991875| 0.00874899991875   0.00874899991875    0.0513999996692|] Xmatrix=[ 0.125767332989    0.0437463331638    0.0437463331638| 0.0437463331638     0.125767332989    0.0437463331638| 0.0437463331638    0.0437463331638     0.125767332989|] Cmatrix=[0                  0                  0| 0                  0                  0| 0                  0                  0|]
New Line.east_campus_1_n_campus_a Phases=3 bus1=east_campus_1.1.2.3 bus2=n_campus_a.1.2.3 Units=km Length=1.435608 Rmatrix=[ 0.071084660506    0.0120296650663    0.0120296650665| 0.0120296650663     0.071084660511    0.0120296650667| 0.0120296650665    0.0120296650667    0.0710846605114|] Xmatrix=[ 0.138888662085    0.0503056639909    0.0503056639907| 0.0503056639909     0.138888662101    0.0503056639905| 0.0503056639907    0.0503056639905     0.138888662073|] Cmatrix=[0                  0                  0| 0                  0                  0| 0                  0                  0|]
New Line.psb_sg1_bus Phases=3 bus1=psb.1.2.3 bus2=sg1_bus.1.2.3 Units=km Length=0.085344 Rmatrix=[0.0710846666664    0.0120296666667    0.0120296666666| 0.0120296666667    0.0710846666667    0.0120296666667| 0.0120296666666    0.0120296666667    0.0710846666665|] Xmatrix=[ 0.138888666667    0.0503056666668    0.0503056666666| 0.0503056666668     0.138888666667    0.0503056666664| 0.0503056666666    0.0503056666664     0.138888666667|] Cmatrix=[0                  0                  0| 0                  0                  0| 0                  0                  0|]
New Line.psb_bus_t_234_pri Phases=3 bus1=psb.1.2.3 bus2=bus_t_234_pri.1.2.3 Units=km Length=0.108204 Rmatrix=[0.0710846666383    0.0120296666589     0.012029666659| 0.0120296666589    0.0710846666374    0.0120296666589|  0.012029666659    0.0120296666589    0.0710846666381|] Xmatrix=[ 0.138888666646    0.0503056666541    0.0503056666542| 0.0503056666541     0.138888666645    0.0503056666538| 0.0503056666542    0.0503056666538     0.138888666645|] Cmatrix=[0                  0                  0| 0                  0                  0| 0                  0                  0|]
New Line.psb_psb_line_tg_2 Phases=3 bus1=psb.1.2.3 bus2=psb_line_tg_2.1.2.3 Units=km Length=0.0003048 Rmatrix=[ 0.071084666667    0.0120296666668    0.0120296666667| 0.0120296666668    0.0710846666665    0.0120296666667| 0.0120296666667    0.0120296666667    0.0710846666665|] Xmatrix=[ 0.138888666667    0.0503056666667    0.0503056666669| 0.0503056666667     0.138888666667    0.0503056666665| 0.0503056666669    0.0503056666665     0.138888666665|] Cmatrix=[0                  0                  0| 0                  0                  0| 0                  0                  0|]
New Line.ss_64_sio_bus_t_223_pri Phases=3 bus1=ss_64_sio.1.2.3 bus2=bus_t_223_pri.1.2.3 Units=km Length=0.0762 Rmatrix=[0.16076            0.02625            0.02625| 0.02625            0.16076            0.02625| 0.02625            0.02625            0.16076|] Xmatrix=[ 0.14873           0.050305           0.050305| 0.050305            0.14873           0.050305| 0.050305           0.050305            0.14873|] Cmatrix=[0                  0                  0| 0                  0                  0| 0                  0                  0|]
New Line.ss_64_sio_bus_t_349_pri Phases=3 bus1=ss_64_sio.1.2.3 bus2=bus_t_349_pri.1.2.3 Units=km Length=0.0762 Rmatrix=[0.16076            0.02625            0.02625| 0.02625            0.16076            0.02625| 0.02625            0.02625            0.16076|] Xmatrix=[ 0.14873           0.050305           0.050305| 0.050305            0.14873           0.050305| 0.050305           0.050305            0.14873|] Cmatrix=[0                  0                  0| 0                  0                  0| 0                  0                  0|]
New Line.bldg_3b_12kv_sw_t_301/302 Phases=3 bus1=bldg_3b_12kv.1.2.3 bus2=sw_t_301/302.1.2.3 Units=km Length=0.016764 Rmatrix=[0.0656166666667    0.0416666666667    0.0416666666667| 0.0416666666667    0.0656166666667    0.0416666666667| 0.0416666666667    0.0416666666667    0.0656166666667|] Xmatrix=[0.319333333333     0.188103333333     0.188103333333| 0.188103333333     0.319333333333     0.188103333333| 0.188103333333     0.188103333333     0.319333333333|] Cmatrix=[0                  0                  0| 0                  0                  0| 0                  0                  0|]
New Line.n_campus_b_e_7_17_17 Phases=3 bus1=n_campus_b.1.2.3 bus2=e_7_17_17.1.2.3 Units=km Length=0.7598664 Rmatrix=[0.0710846639315    0.0120296659572    0.0120296659572| 0.0120296659572    0.0710846639315    0.0120296659571| 0.0120296659572    0.0120296659571    0.0710846639315|] Xmatrix=[ 0.138888664636    0.0503056654802    0.0503056654802| 0.0503056654802     0.138888664636    0.0503056654802| 0.0503056654802    0.0503056654802     0.138888664636|] Cmatrix=[0                  0                  0| 0                  0                  0| 0                  0                  0|]
New Line.n_campus_b_t_281_pri Phases=3 bus1=n_campus_b.1.2.3 bus2=t_281_pri.1.2.3 Units=km Length=0.963168 Rmatrix=[0.0710846631697    0.0120296657604    0.0120296657604| 0.0120296657604    0.0710846631697    0.0120296657604| 0.0120296657604    0.0120296657604    0.0710846631697|] Xmatrix=[ 0.138888664071    0.0503056651505    0.0503056651505| 0.0503056651505     0.138888664071    0.0503056651505| 0.0503056651505    0.0503056651505     0.138888664071|] Cmatrix=[0                  0                  0| 0                  0                  0| 0                  0                  0|]
New Line.n_campus_b_e_1_9_8 Phases=3 bus1=n_campus_b.1.2.3 bus2=e_1_9_8.1.2.3 Units=km Length=0.445008 Rmatrix=[0.0710846660917    0.0120296665176    0.0120296665176| 0.0120296665176    0.0710846660917    0.0120296665176| 0.0120296665176    0.0120296665176    0.0710846660917|] Xmatrix=[  0.13888866624    0.0503056664173    0.0503056664173| 0.0503056664173      0.13888866624    0.0503056664173| 0.0503056664173    0.0503056664173      0.13888866624|] Cmatrix=[0                  0                  0| 0                  0                  0| 0                  0                  0|]
New Line.n_campus_b_ss_92_erc Phases=3 bus1=n_campus_b.1.2.3 bus2=ss_92_erc.1.2.3 Units=km Length=0.915924 Rmatrix=[0.0710846641726    0.0120296660201    0.0120296660201| 0.0120296660201    0.0710846641726    0.0120296660201| 0.0120296660201    0.0120296660201    0.0710846641726|] Xmatrix=[ 0.138888664815    0.0503056655852    0.0503056655852| 0.0503056655852     0.138888664815    0.0503056655852| 0.0503056655852    0.0503056655852     0.138888664815|] Cmatrix=[0                  0                  0| 0                  0                  0| 0                  0                  0|]
New Line.n_campus_b_bus_t_284_pri Phases=3 bus1=n_campus_b.1.2.3 bus2=bus_t_284_pri.1.2.3 Units=km Length=1.345692 Rmatrix=[0.0710846600585    0.0120296649526    0.0120296649526| 0.0120296649526    0.0710846600585    0.0120296649526| 0.0120296649526    0.0120296649526    0.0710846600585|] Xmatrix=[ 0.138888661761    0.0503056638003    0.0503056638003| 0.0503056638003     0.138888661761    0.0503056638003| 0.0503056638003    0.0503056638003     0.138888661761|] Cmatrix=[0                  0                  0| 0                  0                  0| 0                  0                  0|]
New Line.n_campus_c_e_7_12_2_337 Phases=3 bus1=n_campus_c.1.2.3 bus2=e_7_12_2_337.1.2.3 Units=km Length=0.309372 Rmatrix=[0.0710846664058     0.012029666599     0.012029666599|  0.012029666599    0.0710846664058     0.012029666599|  0.012029666599     0.012029666599    0.0710846664058|] Xmatrix=[ 0.138888666473    0.0503056665535    0.0503056665535| 0.0503056665535     0.138888666473    0.0503056665535| 0.0503056665535    0.0503056665535     0.138888666473|] Cmatrix=[0                  0                  0| 0                  0                  0| 0                  0                  0|]
New Line.bus_nc17_ebu2_lab_pri Phases=3 bus1=bus_nc17.1.2.3 bus2=ebu2_lab_pri.1.2.3 Units=km Length=0.333756 Rmatrix=[0.0710846663751     0.012029666591     0.012029666591|  0.012029666591    0.0710846663755     0.012029666591|  0.012029666591     0.012029666591    0.0710846663754|] Xmatrix=[  0.13888866645    0.0503056665403    0.0503056665402| 0.0503056665403      0.13888866645    0.0503056665403| 0.0503056665402    0.0503056665403      0.13888866645|] Cmatrix=[0                  0                  0| 0                  0                  0| 0                  0                  0|]
New Line.bus_nc17_e_7_11_17 Phases=3 bus1=bus_nc17.1.2.3 bus2=e_7_11_17.1.2.3 Units=km Length=0.05334 Rmatrix=[0.0710846666663    0.0120296666667    0.0120296666667| 0.0120296666667    0.0710846666666    0.0120296666667| 0.0120296666667    0.0120296666667     0.071084666667|] Xmatrix=[ 0.138888666665    0.0503056666666    0.0503056666667| 0.0503056666666     0.138888666667    0.0503056666667| 0.0503056666667    0.0503056666667     0.138888666667|] Cmatrix=[0                  0                  0| 0                  0                  0| 0                  0                  0|]
New Line.n_campus_a_bus_nc17 Phases=3 bus1=n_campus_a.1.2.3 bus2=bus_nc17.1.2.3 Units=km Length=0.0009144 Rmatrix=[0.0710846666667    0.0120296666667    0.0120296666667| 0.0120296666667    0.0710846666667    0.0120296666667| 0.0120296666667    0.0120296666667    0.0710846666667|] Xmatrix=[ 0.138888666666    0.0503056666666    0.0503056666667| 0.0503056666666     0.138888666667    0.0503056666667| 0.0503056666667    0.0503056666667     0.138888666667|] Cmatrix=[0                  0                  0| 0                  0                  0| 0                  0                  0|]
New Line.n_campus_a_e_1_9_3_305 Phases=3 bus1=n_campus_a.1.2.3 bus2=e_1_9_3_305.1.2.3 Units=km Length=0.429768 Rmatrix=[0.0710846661423    0.0120296665339    0.0120296665331| 0.0120296665339    0.0710846661549    0.0120296665336| 0.0120296665331    0.0120296665336    0.0710846661527|] Xmatrix=[ 0.138888666277    0.0503056664437    0.0503056664419| 0.0503056664437      0.13888866629    0.0503056664432| 0.0503056664419    0.0503056664432     0.138888666274|] Cmatrix=[0                  0                  0| 0                  0                  0| 0                  0                  0|]
New Line.n_campus_a_e_1_9_1_11 Phases=3 bus1=n_campus_a.1.2.3 bus2=e_1_9_1_11.1.2.3 Units=km Length=0.432816 Rmatrix=[0.0710846661414    0.0120296665307    0.0120296665305| 0.0120296665307    0.0710846661389    0.0120296665303| 0.0120296665305    0.0120296665303    0.0710846661418|] Xmatrix=[ 0.138888666276    0.0503056664391    0.0503056664381| 0.0503056664391     0.138888666271    0.0503056664392| 0.0503056664381    0.0503056664392     0.138888666261|] Cmatrix=[0                  0                  0| 0                  0                  0| 0                  0                  0|]
New Line.n_campus_a_e_2_9_15 Phases=3 bus1=n_campus_a.1.2.3 bus2=e_2_9_15.1.2.3 Units=km Length=1.66878 Rmatrix=[0.0710846571225    0.0120296641912    0.0120296641912| 0.0120296641912    0.0710846571223    0.0120296641914| 0.0120296641912    0.0120296641914    0.0710846571177|] Xmatrix=[ 0.138888659586    0.0503056625279    0.0503056625273| 0.0503056625279     0.138888659593    0.0503056625273| 0.0503056625273    0.0503056625273     0.138888659584|] Cmatrix=[0                  0                  0| 0                  0                  0| 0                  0                  0|]
New Line.n_campus_a_e_2_9_12 Phases=3 bus1=n_campus_a.1.2.3 bus2=e_2_9_12.1.2.3 Units=km Length=1.56972 Rmatrix=[0.0710846592703     0.012029664749    0.0120296647495|  0.012029664749    0.0710846592711    0.0120296647492| 0.0120296647495    0.0120296647492     0.071084659271|] Xmatrix=[ 0.138888661187    0.0503056634597    0.0503056634602| 0.0503056634597     0.138888661169    0.0503056634586| 0.0503056634602    0.0503056634586     0.138888661187|] Cmatrix=[0                  0                  0| 0                  0                  0| 0                  0                  0|]
New Line.revelle_2_t_pharm_esa_p Phases=3 bus1=revelle_2.1.2.3 bus2=t_pharm_esa_p.1.2.3 Units=km Length=0.40386 Rmatrix=[0.0710846657441    0.0120296664258    0.0120296664258| 0.0120296664258    0.0710846657441    0.0120296664258| 0.0120296664258    0.0120296664258    0.0710846657441|] Xmatrix=[ 0.138888665981    0.0503056662651    0.0503056662651| 0.0503056662651     0.138888665981    0.0503056662651| 0.0503056662651    0.0503056662651     0.138888665981|] Cmatrix=[0                  0                  0| 0                  0                  0| 0                  0                  0|]
New Line.revelle_2_black_box_pri Phases=3 bus1=revelle_2.1.2.3 bus2=black_box_pri.1.2.3 Units=km Length=0.562356 Rmatrix=[0.0710846646777    0.0120296661505    0.0120296661505| 0.0120296661505    0.0710846646777    0.0120296661505| 0.0120296661505    0.0120296661505    0.0710846646777|] Xmatrix=[  0.13888866519    0.0503056658037    0.0503056658037| 0.0503056658037      0.13888866519    0.0503056658037| 0.0503056658037    0.0503056658037      0.13888866519|] Cmatrix=[0                  0                  0| 0                  0                  0| 0                  0                  0|]
New Line.revelle_2_sio_1_sub Phases=3 bus1=revelle_2.1.2.3 bus2=sio_1_sub.1.2.3 Units=km Length=2.054352 Rmatrix=[0.0710846507091    0.0120296625289    0.0120296625289| 0.0120296625289    0.0710846507091    0.0120296625289| 0.0120296625289    0.0120296625289    0.0710846507091|] Xmatrix=[ 0.138888654821    0.0503056597461    0.0503056597461| 0.0503056597461     0.138888654821    0.0503056597461| 0.0503056597461    0.0503056597461     0.138888654821|] Cmatrix=[0                  0                  0| 0                  0                  0| 0                  0                  0|]
New Line.revelle_2_ss_30_rc Phases=3 bus1=revelle_2.1.2.3 bus2=ss_30_rc.1.2.3 Units=km Length=0.291084 Rmatrix=[0.0710846664519     0.012029666611     0.012029666611|  0.012029666611    0.0710846664519     0.012029666611|  0.012029666611     0.012029666611    0.0710846664519|] Xmatrix=[ 0.138888666507    0.0503056665735    0.0503056665735| 0.0503056665735     0.138888666507    0.0503056665735| 0.0503056665735    0.0503056665735     0.138888666507|] Cmatrix=[0                  0                  0| 0                  0                  0| 0                  0                  0|]
New Line.revelle_2_psb Phases=3 bus1=revelle_2.1.2.3 bus2=psb.1.2.3 Units=km Length=0.094488 Rmatrix=[ 1.15105354776     0.703150322221     0.703150322218| 0.703150322221      1.15105354776     0.703150322206| 0.703150322218     0.703150322206      1.15105354778|] Xmatrix=[ 1.26271419332      0.61997354823     0.619973548232|  0.61997354823      1.26271419325     0.619973548213| 0.619973548232     0.619973548213      1.26271419331|] Cmatrix=[0                  0                  0| 0                  0                  0| 0                  0                  0|]
New Line.revelle_1_e_10_11_14_109 Phases=3 bus1=revelle_1.1.2.3 bus2=e_10_11_14_109.1.2.3 Units=km Length=0.21336 Rmatrix=[0.0710846665658    0.0120296666405    0.0120296666405| 0.0120296666405    0.0710846665658    0.0120296666405| 0.0120296666405    0.0120296666405    0.0710846665658|] Xmatrix=[ 0.138888666592    0.0503056666229    0.0503056666229| 0.0503056666229     0.138888666592    0.0503056666229| 0.0503056666229    0.0503056666229     0.138888666592|] Cmatrix=[0                  0                  0| 0                  0                  0| 0                  0                  0|]
New Line.revelle_1_ss_31_rc Phases=3 bus1=revelle_1.1.2.3 bus2=ss_31_rc.1.2.3 Units=km Length=0.291084 Rmatrix=[0.0710846664519     0.012029666611     0.012029666611|  0.012029666611    0.0710846664519     0.012029666611|  0.012029666611     0.012029666611    0.0710846664519|] Xmatrix=[ 0.138888666507    0.0503056665735    0.0503056665735| 0.0503056665735     0.138888666507    0.0503056665735| 0.0503056665735    0.0503056665735     0.138888666507|] Cmatrix=[0                  0                  0| 0                  0                  0| 0                  0                  0|]
New Line.revelle_1_pri_bio_med Phases=3 bus1=revelle_1.1.2.3 bus2=pri_bio_med.1.2.3 Units=km Length=0.536448 Rmatrix=[0.0710846643069    0.0120296660516    0.0120296660516| 0.0120296660516    0.0710846643069    0.0120296660516| 0.0120296660516    0.0120296660516    0.0710846643069|] Xmatrix=[ 0.138888664914    0.0503056656406    0.0503056656406| 0.0503056656406     0.138888664914    0.0503056656406| 0.0503056656406    0.0503056656406     0.138888664914|] Cmatrix=[0                  0                  0| 0                  0                  0| 0                  0                  0|]
New Line.revelle_1_psa Phases=3 bus1=revelle_1.1.2.3 bus2=psa.1.2.3 Units=km Length=0.094488 Rmatrix=[ 1.15105354771      0.70315032221     0.703150322213|  0.70315032221      1.15105354774     0.703150322218| 0.703150322213     0.703150322218      1.15105354779|] Xmatrix=[ 1.26271419342     0.619973548274     0.619973548252| 0.619973548274      1.26271419336     0.619973548248| 0.619973548252     0.619973548248      1.26271419324|] Cmatrix=[0                  0                  0| 0                  0                  0| 0                  0                  0|]
New Line.e_1_5_11_t_341_pri Phases=3 bus1=e_1_5_11.1.2.3 bus2=t_341_pri.1.2.3 Units=km Length=0.46482 Rmatrix=[0.0710846657005    0.0120296664161    0.0120296664161| 0.0120296664161    0.0710846657005    0.0120296664161| 0.0120296664161    0.0120296664161    0.0710846657005|] Xmatrix=[ 0.138888665949    0.0503056662476    0.0503056662476| 0.0503056662476     0.138888665949    0.0503056662476| 0.0503056662476    0.0503056662476     0.138888665949|] Cmatrix=[0                  0                  0| 0                  0                  0| 0                  0                  0|]
New Line.e_1_5_11_ss_56_mc Phases=3 bus1=e_1_5_11.1.2.3 bus2=ss_56_mc.1.2.3 Units=km Length=0.085344 Rmatrix=[0.0710846666667    0.0120296666667    0.0120296666667| 0.0120296666667    0.0710846666667    0.0120296666667| 0.0120296666667    0.0120296666667    0.0710846666667|] Xmatrix=[ 0.138888666667    0.0503056666667    0.0503056666667| 0.0503056666667     0.138888666667    0.0503056666667| 0.0503056666667    0.0503056666667     0.138888666667|] Cmatrix=[0                  0                  0| 0                  0                  0| 0                  0                  0|]
New Line.e_1_9_2_305_bus_t_318_pri Phases=3 bus1=e_1_9_2_305.1.2.3 bus2=bus_t_318_pri.1.2.3 Units=km Length=0.240792 Rmatrix=[0.0710846662562      0.01202966656      0.01202966656|   0.01202966656    0.0710846662562      0.01202966656|   0.01202966656      0.01202966656    0.0710846662562|] Xmatrix=[ 0.138888666362    0.0503056664885    0.0503056664885| 0.0503056664885     0.138888666362    0.0503056664885| 0.0503056664885    0.0503056664885     0.138888666362|] Cmatrix=[0                  0                  0| 0                  0                  0| 0                  0                  0|]
New Line.e_1_9_2_305_hi_bay_ph_pri Phases=3 bus1=e_1_9_2_305.1.2.3 bus2=hi_bay_ph_pri.1.2.3 Units=km Length=0.067056 Rmatrix=[0.0710846666667    0.0120296666667    0.0120296666667| 0.0120296666667    0.0710846666667    0.0120296666667| 0.0120296666667    0.0120296666667    0.0710846666667|] Xmatrix=[ 0.138888666667    0.0503056666667    0.0503056666667| 0.0503056666667     0.138888666667    0.0503056666667| 0.0503056666667    0.0503056666667     0.138888666667|] Cmatrix=[0                  0                  0| 0                  0                  0| 0                  0                  0|]
New Line.e_1_7_8_bus_t_238_pri Phases=3 bus1=e_1_7_8.1.2.3 bus2=bus_t_238_pri.1.2.3 Units=km Length=0.470916 Rmatrix=[0.0710846656657    0.0120296664059    0.0120296664059| 0.0120296664059    0.0710846656657    0.0120296664059| 0.0120296664059    0.0120296664059    0.0710846656657|] Xmatrix=[ 0.138888665923    0.0503056662316    0.0503056662316| 0.0503056662316     0.138888665923    0.0503056662316| 0.0503056662316    0.0503056662316     0.138888665923|] Cmatrix=[0                  0                  0| 0                  0                  0| 0                  0                  0|]
New Line.e_1_7_8_ss_104_wc Phases=3 bus1=e_1_7_8.1.2.3 bus2=ss_104_wc.1.2.3 Units=km Length=0.0762 Rmatrix=[0.0710846666667    0.0120296666667    0.0120296666667| 0.0120296666667    0.0710846666667    0.0120296666667| 0.0120296666667    0.0120296666667    0.0710846666667|] Xmatrix=[ 0.138888666667    0.0503056666667    0.0503056666667| 0.0503056666667     0.138888666667    0.0503056666667| 0.0503056666667    0.0503056666667     0.138888666667|] Cmatrix=[0                  0                  0| 0                  0                  0| 0                  0                  0|]
New Line.e_1_8_11_e_1_5_11 Phases=3 bus1=e_1_8_11.1.2.3 bus2=e_1_5_11.1.2.3 Units=km Length=0.338328 Rmatrix=[0.0710846663032    0.0120296665725    0.0120296665725| 0.0120296665725    0.0710846663034    0.0120296665725| 0.0120296665725    0.0120296665725    0.0710846663032|] Xmatrix=[ 0.138888666397    0.0503056665091    0.0503056665091| 0.0503056665091     0.138888666397    0.0503056665091| 0.0503056665091    0.0503056665091     0.138888666397|] Cmatrix=[0                  0                  0| 0                  0                  0| 0                  0                  0|]
New Line.e_1_8_11_bus_t_79_pri Phases=3 bus1=e_1_8_11.1.2.3 bus2=bus_t_79_pri.1.2.3 Units=km Length=0.027432 Rmatrix=[ 0.086030555554    0.0143997222218    0.0143997222218| 0.0143997222218     0.086030555554    0.0143997222218| 0.0143997222218    0.0143997222218     0.086030555554|] Xmatrix=[ 0.140528888888    0.0503055555552    0.0503055555552| 0.0503055555552     0.140528888888    0.0503055555552| 0.0503055555552    0.0503055555552     0.140528888888|] Cmatrix=[0                  0                  0| 0                  0                  0| 0                  0                  0|]
New Line.e_1_9_11_e_1_8_11 Phases=3 bus1=e_1_9_11.1.2.3 bus2=e_1_8_11.1.2.3 Units=km Length=0.03048 Rmatrix=[0.0710846666667    0.0120296666667    0.0120296666667| 0.0120296666667    0.0710846666667    0.0120296666667| 0.0120296666667    0.0120296666667    0.0710846666667|] Xmatrix=[ 0.138888666667    0.0503056666667    0.0503056666667| 0.0503056666667     0.138888666667    0.0503056666667| 0.0503056666667    0.0503056666667     0.138888666667|] Cmatrix=[0                  0                  0| 0                  0                  0| 0                  0                  0|]
New Line.e_1_9_11_serf_bldg_pri Phases=3 bus1=e_1_9_11.1.2.3 bus2=serf_bldg_pri.1.2.3 Units=km Length=0.06096 Rmatrix=[0.0710846666667    0.0120296666667    0.0120296666667| 0.0120296666667    0.0710846666667    0.0120296666667| 0.0120296666667    0.0120296666667    0.0710846666667|] Xmatrix=[ 0.138888666667    0.0503056666667    0.0503056666667| 0.0503056666667     0.138888666667    0.0503056666667| 0.0503056666667    0.0503056666667     0.138888666667|] Cmatrix=[0                  0                  0| 0                  0                  0| 0                  0                  0|]
New Line.e_1_9_8_ss_42_wc Phases=3 bus1=e_1_9_8.1.2.3 bus2=ss_42_wc.1.2.3 Units=km Length=0.2670048 Rmatrix=[0.0710846664208    0.0120296666025    0.0120296666025| 0.0120296666025    0.0710846664205    0.0120296666025| 0.0120296666025    0.0120296666025    0.0710846664208|] Xmatrix=[ 0.138888666484    0.0503056665597    0.0503056665597| 0.0503056665597     0.138888666484    0.0503056665598| 0.0503056665597    0.0503056665598     0.138888666484|] Cmatrix=[0                  0                  0| 0                  0                  0| 0                  0                  0|]
New Line.e_1_9_8_e_1_7_8 Phases=3 bus1=e_1_9_8.1.2.3 bus2=e_1_7_8.1.2.3 Units=km Length=0.149352 Rmatrix=[0.0710846666339    0.0120296666582    0.0120296666582| 0.0120296666582    0.0710846666339    0.0120296666582| 0.0120296666582    0.0120296666582    0.0710846666339|] Xmatrix=[ 0.138888666642    0.0503056666524    0.0503056666524| 0.0503056666524     0.138888666642    0.0503056666524| 0.0503056666524    0.0503056666524     0.138888666642|] Cmatrix=[0                  0                  0| 0                  0                  0| 0                  0                  0|]
New Line.e_1_9_3_305_e_1_9_2_305 Phases=3 bus1=e_1_9_3_305.1.2.3 bus2=e_1_9_2_305.1.2.3 Units=km Length=0.109728 Rmatrix=[0.0710846666667    0.0120296666667    0.0120296666667| 0.0120296666667    0.0710846666666    0.0120296666667| 0.0120296666667    0.0120296666667    0.0710846666667|] Xmatrix=[ 0.138888666667    0.0503056666667    0.0503056666667| 0.0503056666667     0.138888666667    0.0503056666667| 0.0503056666667    0.0503056666667     0.138888666667|] Cmatrix=[0                  0                  0| 0                  0                  0| 0                  0                  0|]